!-Generator IDFEditor 1.50
!-Option SortedOrder

!-NOTE: All comments with '!-' are ignored by the IDFEditor and are generated automatically.
!-      Use '!' comments if they need to be retained when using the IDFEditor.


!-   ===========  ALL OBJECTS IN CLASS: VERSION ===========

! Introduction to EnergyPlus - Exercise 1D
!
! Building: Fictional 1 zone building with lightweight walls and 1 windows.
!           3m x 5m x 3.5m high, long side facing N and S
!           Windows on south wall
!           20C heating, 26C cooling
!
!
Version,
    9.2;                     !- Version Identifier


!-   ===========  ALL OBJECTS IN CLASS: SIMULATIONCONTROL ===========

SimulationControl,
    Yes,                     !- Do Zone Sizing Calculation
    No,                      !- Do System Sizing Calculation
    No,                      !- Do Plant Sizing Calculation
    No,                      !- Run Simulation for Sizing Periods
    Yes;                     !- Run Simulation for Weather File Run Periods


!-   ===========  ALL OBJECTS IN CLASS: BUILDING ===========

Building,
    London Office,           !- Name
    180,                     !- North Axis {deg}
    City,                    !- Terrain
    0.04,                    !- Loads Convergence Tolerance Value
    0.01,                    !- Temperature Convergence Tolerance Value {deltaC}
    FullInteriorAndExterior, !- Solar Distribution
    25,                      !- Maximum Number of Warmup Days
    6;                       !- Minimum Number of Warmup Days


!-   ===========  ALL OBJECTS IN CLASS: SURFACECONVECTIONALGORITHM:INSIDE ===========

SurfaceConvectionAlgorithm:Inside,
    TARP;                    !- Algorithm


!-   ===========  ALL OBJECTS IN CLASS: SURFACECONVECTIONALGORITHM:OUTSIDE ===========

SurfaceConvectionAlgorithm:Outside,
    TARP;                    !- Algorithm


!-   ===========  ALL OBJECTS IN CLASS: HEATBALANCEALGORITHM ===========

HeatBalanceAlgorithm,
    ConductionTransferFunction;  !- Algorithm


!-   ===========  ALL OBJECTS IN CLASS: ZONEAIRCONTAMINANTBALANCE ===========

ZoneAirContaminantBalance,
    Yes,                     !- Carbon Dioxide Concentration
    outdoor CO2 schedule;    !- Outdoor Carbon Dioxide Schedule Name


!-   ===========  ALL OBJECTS IN CLASS: TIMESTEP ===========

Timestep,
    1;                       !- Number of Timesteps per Hour


!-   ===========  ALL OBJECTS IN CLASS: RUNPERIOD ===========

RunPeriod,
    period 1,                !- Name
    1,                       !- Begin Month
    1,                       !- Begin Day of Month
    ,                        !- Begin Year
    12,                      !- End Month
    31,                      !- End Day of Month
    ,                        !- End Year
    ,                        !- Day of Week for Start Day
    Yes,                     !- Use Weather File Holidays and Special Days
    Yes,                     !- Use Weather File Daylight Saving Period
    No,                      !- Apply Weekend Holiday Rule
    Yes,                     !- Use Weather File Rain Indicators
    Yes;                     !- Use Weather File Snow Indicators


!-   ===========  ALL OBJECTS IN CLASS: SCHEDULETYPELIMITS ===========

ScheduleTypeLimits,
    On/Off,                  !- Name
    0.0,                     !- Lower Limit Value
    1.0,                     !- Upper Limit Value
    Discrete;                !- Numeric Type

ScheduleTypeLimits,
    Temperature,             !- Name
    -60,                     !- Lower Limit Value
    200,                     !- Upper Limit Value
    Continuous;              !- Numeric Type

ScheduleTypeLimits,
    Fraction,                !- Name
    0.0,                     !- Lower Limit Value
    1.0,                     !- Upper Limit Value
    Continuous;              !- Numeric Type

ScheduleTypeLimits,
    Any Number;              !- Name


!-   ===========  ALL OBJECTS IN CLASS: SCHEDULE:COMPACT ===========

Schedule:Compact,
    window opening,          !- Name
    Fraction,                !- Schedule Type Limits Name
    Through: 12/31,          !- Field 1
    For: Weekdays SummerDesignDay,  !- Field 2
    Until: 07:00,            !- Field 3
    0.0,                     !- Field 4
    Until: 08:00,            !- Field 5
    1,                       !- Field 6
    Until: 12:00,            !- Field 7
    1,                       !- Field 8
    Until: 13:00,            !- Field 9
    1,                       !- Field 10
    Until: 17:00,            !- Field 11
    1,                       !- Field 12
    Until: 18:00,            !- Field 13
    1,                       !- Field 14
    Until: 22:00,            !- Field 15
    1,                       !- Field 16
    Until: 24:00,            !- Field 17
    0,                       !- Field 18
    For: Saturday,           !- Field 19
    Until: 07:00,            !- Field 20
    0.0,                     !- Field 21
    Until: 08:00,            !- Field 22
    1,                       !- Field 23
    Until: 12:00,            !- Field 24
    1,                       !- Field 25
    Until: 17:00,            !- Field 26
    1,                       !- Field 27
    Until: 18:00,            !- Field 28
    1,                       !- Field 29
    Until: 24:00,            !- Field 30
    0.0,                     !- Field 31
    For: Sunday Holidays WinterDesignDay AllOtherDays,  !- Field 32
    Until: 24:00,            !- Field 33
    0.0;                     !- Field 34

Schedule:Compact,
    ALWAYS 1,                !- Name
    Any Number,              !- Schedule Type Limits Name
    Through: 12/31,          !- Field 1
    For: AllDays,            !- Field 2
    Until: 24:00,            !- Field 3
    1;                       !- Field 4

Schedule:Compact,
    outdoor CO2 schedule,    !- Name
    Any Number,              !- Schedule Type Limits Name
    Through: 12/31,          !- Field 1
    For: AllDays,            !- Field 2
    Until: 24:00,            !- Field 3
    389;                     !- Field 4

Schedule:Compact,
    ALWAYS 0,                !- Name
    Any Number,              !- Schedule Type Limits Name
    Through: 12/31,          !- Field 1
    For: AllDays,            !- Field 2
    Until: 24:00,            !- Field 3
    0;                       !- Field 4

Schedule:Compact,
    ALWAYS 0.05,             !- Name
    Any Number,              !- Schedule Type Limits Name
    Through: 12/31,          !- Field 1
    For: AllDays,            !- Field 2
    Until: 24:00,            !- Field 3
    .05;                     !- Field 4

Schedule:Compact,
    clothes insulation,      !- Name
    Any Number,              !- Schedule Type Limits Name
    Through: 4/30,           !- Field 1
    For: AllDays,            !- Field 2
    Until: 24:00,            !- Field 3
    .85,                     !- Field 4
    Through: 9/30,           !- Field 5
    For: AllDays,            !- Field 6
    Until: 24:00,            !- Field 7
    .7,                      !- Field 8
    Through: 12/31,          !- Field 9
    For: AllDays,            !- Field 10
    Until: 24:00,            !- Field 11
    .85;                     !- Field 12

Schedule:Compact,
    Office Lighting,         !- Name
    Fraction,                !- Schedule Type Limits Name
    Through: 12/31,          !- Field 1
    For: Weekdays SummerDesignDay,  !- Field 2
    Until: 05:00,            !- Field 3
    0.05,                    !- Field 4
    Until: 07:00,            !- Field 5
    0.1,                     !- Field 6
    Until: 08:00,            !- Field 7
    0.3,                     !- Field 8
    Until: 17:00,            !- Field 9
    0.9,                     !- Field 10
    Until: 18:00,            !- Field 11
    0.5,                     !- Field 12
    Until: 20:00,            !- Field 13
    0.3,                     !- Field 14
    Until: 22:00,            !- Field 15
    0.2,                     !- Field 16
    Until: 23:00,            !- Field 17
    0.1,                     !- Field 18
    Until: 24:00,            !- Field 19
    0.05,                    !- Field 20
    For: Saturday WinterDesignDay,  !- Field 21
    Until: 06:00,            !- Field 22
    0.05,                    !- Field 23
    Until: 08:00,            !- Field 24
    0.1,                     !- Field 25
    Until: 12:00,            !- Field 26
    0.3,                     !- Field 27
    Until: 17:00,            !- Field 28
    0.15,                    !- Field 29
    Until: 24:00,            !- Field 30
    0.05,                    !- Field 31
    For: Sunday Holidays AllOtherDays,  !- Field 32
    Until: 24:00,            !- Field 33
    0.05;                    !- Field 34

Schedule:Compact,
    ALWAYS 4,                !- Name
    Any Number,              !- Schedule Type Limits Name
    Through: 12/31,          !- Field 1
    For: AllDays,            !- Field 2
    Until: 24:00,            !- Field 3
    4;                       !- Field 4

Schedule:Compact,
    ActSchd,                 !- Name
    Any Number,              !- Schedule Type Limits Name
    Through: 12/31,          !- Field 1
    For: AllDays,            !- Field 2
    Until: 24:00,            !- Field 3
    125;                     !- Field 4

Schedule:Compact,
    Office Occupancy 2,      !- Name
    Fraction,                !- Schedule Type Limits Name
    Through: 12/31,          !- Field 1
    For: Weekdays SummerDesignDay,  !- Field 2
    Until: 07:00,            !- Field 3
    0.0,                     !- Field 4
    Until: 08:00,            !- Field 5
    0.2,                     !- Field 6
    Until: 12:00,            !- Field 7
    0.95,                    !- Field 8
    Until: 13:00,            !- Field 9
    0.5,                     !- Field 10
    Until: 17:00,            !- Field 11
    0.95,                    !- Field 12
    Until: 18:00,            !- Field 13
    0.3,                     !- Field 14
    Until: 22:00,            !- Field 15
    0.1,                     !- Field 16
    Until: 24:00,            !- Field 17
    0.0,                     !- Field 18
    For: Saturday,           !- Field 19
    Until: 07:00,            !- Field 20
    0.0,                     !- Field 21
    Until: 08:00,            !- Field 22
    0.1,                     !- Field 23
    Until: 12:00,            !- Field 24
    0.3,                     !- Field 25
    Until: 17:00,            !- Field 26
    0.1,                     !- Field 27
    Until: 18:00,            !- Field 28
    0.05,                    !- Field 29
    Until: 24:00,            !- Field 30
    0.0,                     !- Field 31
    For: Sunday Holidays WinterDesignDay AllOtherDays,  !- Field 32
    Until: 24:00,            !- Field 33
    0.0;                     !- Field 34

Schedule:Compact,
    Office HVAC,             !- Name
    on/off,                  !- Schedule Type Limits Name
    Through: 12/31,          !- Field 1
    For: Weekdays SummerDesignDay,  !- Field 2
    Until: 06:00,            !- Field 3
    0.0,                     !- Field 4
    Until: 22:00,            !- Field 5
    1.0,                     !- Field 6
    Until: 24:00,            !- Field 7
    0.0,                     !- Field 8
    For: Saturday WinterDesignDay,  !- Field 9
    Until: 06:00,            !- Field 10
    0.0,                     !- Field 11
    Until: 18:00,            !- Field 12
    1.0,                     !- Field 13
    Until: 24:00,            !- Field 14
    0.0,                     !- Field 15
    For: Sunday Holidays AllOtherDays,  !- Field 16
    Until: 24:00,            !- Field 17
    0.0;                     !- Field 18

Schedule:Compact,
    Office Heating Setpoints,!- Name
    Temperature,             !- Schedule Type Limits Name
    Through: 4/30,           !- Field 1
    For: Weekdays,           !- Field 2
    Until: 06:00,            !- Field 3
    12.8,                    !- Field 4
    Until: 22:00,            !- Field 5
    20,                      !- Field 6
    Until: 24:00,            !- Field 7
    12.8,                    !- Field 8
    For: Saturday,           !- Field 9
    Until: 06:00,            !- Field 10
    12.8,                    !- Field 11
    Until: 18:00,            !- Field 12
    20,                      !- Field 13
    Until: 24:00,            !- Field 14
    12.8,                    !- Field 15
    For: Sunday Holidays AllOtherDays,  !- Field 16
    Until: 24:00,            !- Field 17
    12.8,                    !- Field 18
    Through: 9/30,           !- Field 19
    For: Weekdays,           !- Field 20
    Until: 06:00,            !- Field 21
    12.8,                    !- Field 22
    Until: 22:00,            !- Field 23
    20,                      !- Field 24
    Until: 24:00,            !- Field 25
    12.8,                    !- Field 26
    For: Saturday,           !- Field 27
    Until: 06:00,            !- Field 28
    12.8,                    !- Field 29
    Until: 18:00,            !- Field 30
    20,                      !- Field 31
    Until: 24:00,            !- Field 32
    12.8,                    !- Field 33
    For: Sunday Holidays AllOtherDays,  !- Field 34
    Until: 24:00,            !- Field 35
    12.8,                    !- Field 36
    Through: 12/31,          !- Field 37
    For: Weekdays,           !- Field 38
    Until: 06:00,            !- Field 39
    12.8,                    !- Field 40
    Until: 22:00,            !- Field 41
    20,                      !- Field 42
    Until: 24:00,            !- Field 43
    12.8,                    !- Field 44
    For: Saturday,           !- Field 45
    Until: 06:00,            !- Field 46
    12.8,                    !- Field 47
    Until: 18:00,            !- Field 48
    20,                      !- Field 49
    Until: 24:00,            !- Field 50
    12.8,                    !- Field 51
    For: Sunday Holidays AllOtherDays,  !- Field 52
    Until: 24:00,            !- Field 53
    12.8;                    !- Field 54

Schedule:Compact,
    Office Cooling Setpoints,!- Name
    Temperature,             !- Schedule Type Limits Name
    Through: 4/30,           !- Field 1
    For: Weekdays,           !- Field 2
    Until: 06:00,            !- Field 3
    40,                      !- Field 4
    Until: 22:00,            !- Field 5
    26,                      !- Field 6
    Until: 24:00,            !- Field 7
    40,                      !- Field 8
    For: Saturday,           !- Field 9
    Until: 06:00,            !- Field 10
    40,                      !- Field 11
    Until: 18:00,            !- Field 12
    26,                      !- Field 13
    Until: 24:00,            !- Field 14
    40,                      !- Field 15
    For: Sunday Holidays AllOtherDays,  !- Field 16
    Until: 24:00,            !- Field 17
    40,                      !- Field 18
    Through: 9/30,           !- Field 19
    For: Weekdays,           !- Field 20
    Until: 06:00,            !- Field 21
    40,                      !- Field 22
    Until: 22:00,            !- Field 23
    26,                      !- Field 24
    Until: 24:00,            !- Field 25
    40,                      !- Field 26
    For: Saturday,           !- Field 27
    Until: 06:00,            !- Field 28
    40,                      !- Field 29
    Until: 18:00,            !- Field 30
    26,                      !- Field 31
    Until: 24:00,            !- Field 32
    40,                      !- Field 33
    For: Sunday Holidays AllOtherDays,  !- Field 34
    Until: 24:00,            !- Field 35
    40,                      !- Field 36
    Through: 12/31,          !- Field 37
    For: Weekdays,           !- Field 38
    Until: 06:00,            !- Field 39
    40,                      !- Field 40
    Until: 22:00,            !- Field 41
    26,                      !- Field 42
    Until: 24:00,            !- Field 43
    40,                      !- Field 44
    For: Saturday,           !- Field 45
    Until: 06:00,            !- Field 46
    40,                      !- Field 47
    Until: 18:00,            !- Field 48
    26,                      !- Field 49
    Until: 24:00,            !- Field 50
    40,                      !- Field 51
    For: Sunday Holidays AllOtherDays,  !- Field 52
    Until: 24:00,            !- Field 53
    40;                      !- Field 54


!-   ===========  ALL OBJECTS IN CLASS: SCHEDULE:FILE ===========

Schedule:File,
    THM_ILL,                 !- Name
    Any Number,              !- Schedule Type Limits Name
    C:\Users\silvi\PycharmProjects\THMcontrol\EnergyPlusFiles\Control_London_Passive\THM_ILL.txt,  !- File Name
    1,                       !- Column Number
    0,                       !- Rows to Skip at Top
    8760,                    !- Number of Hours of Data
    Comma,                   !- Column Separator
    Yes;                     !- Interpolate to Timestep

Schedule:File,
    THM_DGP,                 !- Name
    Any Number,              !- Schedule Type Limits Name
    C:\Users\silvi\PycharmProjects\THMcontrol\EnergyPlusFiles\Control_London_Passive\THM_DGP.txt,  !- File Name
    1,                       !- Column Number
    0,                       !- Rows to Skip at Top
    8760,                    !- Number of Hours of Data
    Comma,                   !- Column Separator
    Yes;                     !- Interpolate to Timestep

Schedule:File,
    THM_light,               !- Name
    Any Number,              !- Schedule Type Limits Name
    C:\Users\silvi\PycharmProjects\THMcontrol\EnergyPlusFiles\Control_London_Passive\THM_light.txt,  !- File Name
    1,                       !- Column Number
    0,                       !- Rows to Skip at Top
    8760,                    !- Number of Hours of Data
    Comma,                   !- Column Separator
    Yes;                     !- Interpolate to Timestep

Schedule:File,
    THM_control,             !- Name
    Any Number,              !- Schedule Type Limits Name
    C:\Users\silvi\PycharmProjects\THMcontrol\EnergyPlusFiles\Control_London_Passive\THM_control.txt,  !- File Name
    1,                       !- Column Number
    0,                       !- Rows to Skip at Top
    8760,                    !- Number of Hours of Data
    Comma,                   !- Column Separator
    Yes;                     !- Interpolate to Timestep

Schedule:File,
    DGP_Tvis4,               !- Name
    Any Number,              !- Schedule Type Limits Name
    C:\Users\silvi\PycharmProjects\THMcontrol\EnergyPlusFiles\Control_London_Passive\DGP4.txt,  !- File Name
    1,                       !- Column Number
    0,                       !- Rows to Skip at Top
    8760,                    !- Number of Hours of Data
    Comma,                   !- Column Separator
    Yes;                     !- Interpolate to Timestep

Schedule:File,
    DGP_Tvis3,               !- Name
    Any Number,              !- Schedule Type Limits Name
    C:\Users\silvi\PycharmProjects\THMcontrol\EnergyPlusFiles\Control_London_Passive\DGP3.txt,  !- File Name
    1,                       !- Column Number
    0,                       !- Rows to Skip at Top
    8760,                    !- Number of Hours of Data
    Comma,                   !- Column Separator
    Yes;                     !- Interpolate to Timestep

Schedule:File,
    DGP_Tvis2,               !- Name
    Any Number,              !- Schedule Type Limits Name
    C:\Users\silvi\PycharmProjects\THMcontrol\EnergyPlusFiles\Control_London_Passive\DGP2.txt,  !- File Name
    1,                       !- Column Number
    0,                       !- Rows to Skip at Top
    8760,                    !- Number of Hours of Data
    Comma,                   !- Column Separator
    Yes;                     !- Interpolate to Timestep

Schedule:File,
    DGP_Tvis1,               !- Name
    Any Number,              !- Schedule Type Limits Name
    C:\Users\silvi\PycharmProjects\THMcontrol\EnergyPlusFiles\Control_London_Passive\DGP1.txt,  !- File Name
    1,                       !- Column Number
    0,                       !- Rows to Skip at Top
    8760,                    !- Number of Hours of Data
    Comma,                   !- Column Separator
    Yes;                     !- Interpolate to Timestep

Schedule:File,
    ILL_Tvis4,               !- Name
    Any Number,              !- Schedule Type Limits Name
    C:\Users\silvi\PycharmProjects\THMcontrol\EnergyPlusFiles\Control_London_Passive\ILL4_P1_H.txt,  !- File Name
    1,                       !- Column Number
    0,                       !- Rows to Skip at Top
    8760,                    !- Number of Hours of Data
    Comma,                   !- Column Separator
    Yes;                     !- Interpolate to Timestep

Schedule:File,
    ILL_Tvis3,               !- Name
    Any Number,              !- Schedule Type Limits Name
    C:\Users\silvi\PycharmProjects\THMcontrol\EnergyPlusFiles\Control_London_Passive\ILL3_P1_H.txt,  !- File Name
    1,                       !- Column Number
    0,                       !- Rows to Skip at Top
    8760,                    !- Number of Hours of Data
    Comma,                   !- Column Separator
    Yes;                     !- Interpolate to Timestep

Schedule:File,
    ILL_Tvis2,               !- Name
    Any Number,              !- Schedule Type Limits Name
    C:\Users\silvi\PycharmProjects\THMcontrol\EnergyPlusFiles\Control_London_Passive\ILL2_P1_H.txt,  !- File Name
    1,                       !- Column Number
    0,                       !- Rows to Skip at Top
    8760,                    !- Number of Hours of Data
    Comma,                   !- Column Separator
    Yes;                     !- Interpolate to Timestep

Schedule:File,
    ILL_Tvis1,               !- Name
    Any Number,              !- Schedule Type Limits Name
    C:\Users\silvi\PycharmProjects\THMcontrol\EnergyPlusFiles\Control_London_Passive\ILL1_P1_H.txt,  !- File Name
    1,                       !- Column Number
    0,                       !- Rows to Skip at Top
    8760,                    !- Number of Hours of Data
    Comma,                   !- Column Separator
    Yes;                     !- Interpolate to Timestep


!-   ===========  ALL OBJECTS IN CLASS: MATERIAL ===========

Material,
    Render External,         !- Name
    Smooth,                  !- Roughness
    0.02,                    !- Thickness {m}
    0.57,                    !- Conductivity {W/m-K}
    1300,                    !- Density {kg/m3}
    1000,                    !- Specific Heat {J/kg-K}
    0.9,                     !- Thermal Absorptance
    0.5,                     !- Solar Absorptance
    0.5;                     !- Visible Absorptance

Material,
    Mineral Wool W,          !- Name
    MediumRough,             !- Roughness
    0.12,                    !- Thickness {m}
    0.04,                    !- Conductivity {W/m-K}
    25,                      !- Density {kg/m3}
    1000,                    !- Specific Heat {J/kg-K}
    0.9,                     !- Thermal Absorptance
    0.16,                    !- Solar Absorptance
    0.16;                    !- Visible Absorptance

Material,
    Glass,                   !- Name
    MediumSmooth,            !- Roughness
    0.012,                   !- Thickness {m}
    0.9,                     !- Conductivity {W/m-K}
    2500,                    !- Density {kg/m3}
    840,                     !- Specific Heat {J/kg-K}
    0.7,                     !- Thermal Absorptance
    0.5,                     !- Solar Absorptance
    0.5;                     !- Visible Absorptance

Material,
    Mineral Wool PW,         !- Name
    MediumRough,             !- Roughness
    0.05,                    !- Thickness {m}
    0.04,                    !- Conductivity {W/m-K}
    25,                      !- Density {kg/m3}
    1000,                    !- Specific Heat {J/kg-K}
    0.9,                     !- Thermal Absorptance
    0.16,                    !- Solar Absorptance
    0.16;                    !- Visible Absorptance

Material,
    Brickwork,               !- Name
    MediumSmooth,            !- Roughness
    0.102,                   !- Thickness {m}
    0.77,                    !- Conductivity {W/m-K}
    1700,                    !- Density {kg/m3}
    1000,                    !- Specific Heat {J/kg-K}
    0.9,                     !- Thermal Absorptance
    0.5,                     !- Solar Absorptance
    0.5;                     !- Visible Absorptance

Material,
    Concrete Wall,           !- Name
    MediumSmooth,            !- Roughness
    0.100,                   !- Thickness {m}
    1.13,                    !- Conductivity {W/m-K}
    2000,                    !- Density {kg/m3}
    1000,                    !- Specific Heat {J/kg-K}
    0.9,                     !- Thermal Absorptance
    0.5,                     !- Solar Absorptance
    0.5;                     !- Visible Absorptance

Material,
    Plasterboard,            !- Name
    MediumSmooth,            !- Roughness
    0.013,                   !- Thickness {m}
    0.21,                    !- Conductivity {W/m-K}
    900,                     !- Density {kg/m3}
    1000,                    !- Specific Heat {J/kg-K}
    0.9,                     !- Thermal Absorptance
    0.16,                    !- Solar Absorptance
    0.16;                    !- Visible Absorptance

Material,
    Concrete slab,           !- Name
    MediumRough,             !- Roughness
    0.150,                   !- Thickness {m}
    1.35,                    !- Conductivity {W/m-K}
    2400,                    !- Density {kg/m3}
    1000,                    !- Specific Heat {J/kg-K}
    0.9,                     !- Thermal Absorptance
    0.5,                     !- Solar Absorptance
    0.5;                     !- Visible Absorptance

Material,
    Ceiling tile,            !- Name
    Smooth,                  !- Roughness
    0.015,                   !- Thickness {m}
    0.09,                    !- Conductivity {W/m-K}
    250,                     !- Density {kg/m3}
    1000,                    !- Specific Heat {J/kg-K}
    0.9,                     !- Thermal Absorptance
    0.12,                    !- Solar Absorptance
    0.12;                    !- Visible Absorptance

Material,
    Flooring Screed,         !- Name
    Rough,                   !- Roughness
    0.050,                   !- Thickness {m}
    0.41,                    !- Conductivity {W/m-K}
    1200,                    !- Density {kg/m3}
    1000,                    !- Specific Heat {J/kg-K}
    0.9,                     !- Thermal Absorptance
    0.4,                     !- Solar Absorptance
    0.4;                     !- Visible Absorptance


!-   ===========  ALL OBJECTS IN CLASS: MATERIAL:AIRGAP ===========

Material:AirGap,
    air gap 25 mm,           !- Name
    0.18;                    !- Thermal Resistance {m2-K/W}

Material:AirGap,
    air gap 400 mm,          !- Name
    0.18;                    !- Thermal Resistance {m2-K/W}


!-   ===========  ALL OBJECTS IN CLASS: WINDOWMATERIAL:SIMPLEGLAZINGSYSTEM ===========

WindowMaterial:SimpleGlazingSystem,
    Window1,                 !- Name
    2,                       !- U-Factor {W/m2-K}
    0.21636,                 !- Solar Heat Gain Coefficient
    0.238;                   !- Visible Transmittance

WindowMaterial:SimpleGlazingSystem,
    Window2,                 !- Name
    2,                       !- U-Factor {W/m2-K}
    0.31,                    !- Solar Heat Gain Coefficient
    0.341;                   !- Visible Transmittance

WindowMaterial:SimpleGlazingSystem,
    Window3,                 !- Name
    2,                       !- U-Factor {W/m2-K}
    0.40545,                 !- Solar Heat Gain Coefficient
    0.446;                   !- Visible Transmittance

WindowMaterial:SimpleGlazingSystem,
    Window4,                 !- Name
    2,                       !- U-Factor {W/m2-K}
    0.54091,                 !- Solar Heat Gain Coefficient
    0.595;                   !- Visible Transmittance

WindowMaterial:SimpleGlazingSystem,
    Window0_3,               !- Name
    2,                       !- U-Factor {W/m2-K}
    0.02,                    !- Solar Heat Gain Coefficient
    0.02;                    !- Visible Transmittance

WindowMaterial:SimpleGlazingSystem,
    Window3_6,               !- Name
    2,                       !- U-Factor {W/m2-K}
    0.02,                    !- Solar Heat Gain Coefficient
    0.02;                    !- Visible Transmittance

WindowMaterial:SimpleGlazingSystem,
    Window6_7,               !- Name
    2,                       !- U-Factor {W/m2-K}
    0.40545454545454546,     !- Solar Heat Gain Coefficient
    0.446;                   !- Visible Transmittance

WindowMaterial:SimpleGlazingSystem,
    Window7_8,               !- Name
    2,                       !- U-Factor {W/m2-K}
    0.21636363636363634,     !- Solar Heat Gain Coefficient
    0.238;                   !- Visible Transmittance

WindowMaterial:SimpleGlazingSystem,
    Window8_9,               !- Name
    2,                       !- U-Factor {W/m2-K}
    0.31,                    !- Solar Heat Gain Coefficient
    0.341;                   !- Visible Transmittance

WindowMaterial:SimpleGlazingSystem,
    Window9_10,              !- Name
    2,                       !- U-Factor {W/m2-K}
    0.21636363636363634,     !- Solar Heat Gain Coefficient
    0.238;                   !- Visible Transmittance

WindowMaterial:SimpleGlazingSystem,
    Window10_11,             !- Name
    2,                       !- U-Factor {W/m2-K}
    0.5409090909090909,      !- Solar Heat Gain Coefficient
    0.595;                   !- Visible Transmittance

WindowMaterial:SimpleGlazingSystem,
    Window11_12,             !- Name
    2,                       !- U-Factor {W/m2-K}
    0.5409090909090909,      !- Solar Heat Gain Coefficient
    0.595;                   !- Visible Transmittance
